# File generated by Flopy version 3.3.6 on 06/27/2023 at 10:56:29.
BEGIN options
  READASARRAYS
END options

BEGIN period  1
  recharge
    CONSTANT       0.00975414
END period  1

