# File generated by Flopy version 3.3.6 on 06/27/2023 at 10:56:29.
BEGIN options
END options

BEGIN dimensions
  MAXBOUND  1
END dimensions

BEGIN period  1
  10 26 26   -1491.80115921
END period  1

