# File generated by Flopy version 3.4.1 on 07/14/2023 at 04:13:56.
BEGIN options
  READASARRAYS
END options

BEGIN period  1
  recharge
    CONSTANT       0.00960115
END period  1

