# File generated by Flopy version 3.4.1 on 07/14/2023 at 04:13:56.
BEGIN options
END options

BEGIN dimensions
  MAXBOUND  2
END dimensions

BEGIN period  1
  10 26 26   -1036.84614524
  10 26 76   -1036.84614524
END period  1

