# File generated by Flopy version 3.4.1 on 07/14/2023 at 04:13:56.
BEGIN options
END options

BEGIN griddata
  icelltype
    CONSTANT  1
  k
    CONSTANT       1.12160873
END griddata

