# File generated by Flopy version 3.4.1 on 07/14/2023 at 04:13:56.
BEGIN options
  TIME_UNITS  days
END options

BEGIN dimensions
  NPER  1
END dimensions

BEGIN perioddata
       1.00000000  1       1.00000000
END perioddata

