# File generated by Flopy version 3.4.1 on 07/14/2023 at 04:13:56.
BEGIN options
  COMPLEXITY  simple
END options

BEGIN linear
  LINEAR_ACCELERATION  bicgstab
END linear

