# File generated by Flopy version 3.4.1 on 08/25/2023 at 00:15:42.
BEGIN options
  COMPLEXITY  simple
END options

BEGIN linear
  LINEAR_ACCELERATION  bicgstab
END linear

