# File generated by Flopy version 3.3.6 on 06/26/2023 at 09:22:26.
BEGIN options
END options

BEGIN dimensions
  MAXBOUND  1
END dimensions

BEGIN period  1
  10 26 26   -1196.72046368
END period  1

