# File generated by Flopy version 3.3.6 on 06/26/2023 at 09:22:26.
BEGIN options
  COMPLEXITY  simple
END options

BEGIN linear
  LINEAR_ACCELERATION  bicgstab
END linear

