# File generated by Flopy version 3.3.6 on 06/27/2023 at 17:07:30.
BEGIN options
  COMPLEXITY  simple
END options

BEGIN linear
  LINEAR_ACCELERATION  bicgstab
END linear

