# File generated by Flopy version 3.3.6 on 06/27/2023 at 17:04:04.
BEGIN options
  BUDGET  FILEOUT  FloPy_Test1.cbb
  HEAD  FILEOUT  FloPy_Test1.hds
END options

BEGIN period  1
  SAVE  HEAD  ALL
  SAVE  BUDGET  ALL
  PRINT  HEAD  LAST
END period  1

