# File generated by Flopy version 3.3.6 on 07/07/2023 at 09:23:07.
BEGIN options
  COMPLEXITY  simple
END options

BEGIN linear
  LINEAR_ACCELERATION  bicgstab
END linear

