# File generated by Flopy version 3.3.6 on 07/07/2023 at 09:23:07.
BEGIN options
END options

BEGIN dimensions
  MAXBOUND  2
END dimensions

BEGIN period  1
  10 26 26   -1036.84614524
  10 26 76   -1036.84614524
END period  1

