# File generated by Flopy version 3.3.6 on 07/07/2023 at 09:23:07.
BEGIN options
  READASARRAYS
END options

BEGIN period  1
  recharge
    CONSTANT       0.00960115
END period  1

