# File generated by Flopy version 3.3.6 on 07/07/2023 at 09:23:07.
BEGIN options
END options

BEGIN griddata
  icelltype
    CONSTANT  1
  k
    CONSTANT       1.32160873
END griddata

