# File generated by Flopy version 3.3.6 on 07/08/2023 at 09:49:35.
BEGIN options
  COMPLEXITY  simple
END options

BEGIN linear
  LINEAR_ACCELERATION  bicgstab
END linear

