# File generated by Flopy version 3.3.6 on 07/08/2023 at 09:49:36.
BEGIN options
END options

BEGIN griddata
  icelltype
    CONSTANT  1
  k
    CONSTANT       1.53241310
END griddata

