# File generated by Flopy version 3.3.6 on 06/26/2023 at 17:35:11.
BEGIN options
  SAVE_FLOWS
  NEWTON  UNDER_RELAXATION
END options

BEGIN packages
  DIS6  FloPy_Test1.dis  dis
  IC6  FloPy_Test1.ic  ic
  NPF6  FloPy_Test1.npf  npf
  STO6  FloPy_Test1.sto  sto
  CHD6  FloPy_Test1.chd  chd_0
  WEL6  FloPy_Test1.wel  wel_0
  RCH6  FloPy_Test1.rcha  rch
  OC6  FloPy_Test1.oc  oc
END packages

