# File generated by Flopy version 3.3.6 on 06/26/2023 at 17:35:11.
BEGIN options
END options

BEGIN dimensions
  MAXBOUND  1
END dimensions

BEGIN period  1
  10 26 26   -1000.00000000
END period  1

