# File generated by Flopy version 3.3.6 on 06/26/2023 at 17:35:11.
BEGIN options
  BUDGET  FILEOUT  FloPy_Test1.cbb
  HEAD  FILEOUT  FloPy_Test1.hds
END options

BEGIN period  1
  SAVE  HEAD  ALL
  SAVE  BUDGET  ALL
  PRINT  HEAD  LAST
END period  1

