# File generated by Flopy version 3.3.6 on 06/26/2023 at 17:35:11.
BEGIN options
END options

BEGIN timing
  TDIS6  FloPy_Test1.tdis
END timing

BEGIN models
  gwf6  FloPy_Test1.nam  FloPy_Test1
END models

BEGIN exchanges
END exchanges

BEGIN solutiongroup  1
  ims6  FloPy_Test1.ims  FloPy_Test1
END solutiongroup  1

