# File generated by Flopy version 3.3.6 on 06/26/2023 at 15:19:01.
BEGIN options
END options

BEGIN griddata
  icelltype
    CONSTANT  1
  k
    CONSTANT       1.00000000
END griddata

