# File generated by Flopy version 3.3.6 on 06/26/2023 at 15:19:01.
BEGIN options
  COMPLEXITY  simple
END options

BEGIN linear
  LINEAR_ACCELERATION  bicgstab
END linear

