# File generated by Flopy version 3.3.6 on 06/26/2023 at 15:19:01.
BEGIN options
  SAVE_FLOWS
  NEWTON  UNDER_RELAXATION
END options

BEGIN packages
  DIS6  FloPy_ModelS_T1b.dis  dis
  IC6  FloPy_ModelS_T1b.ic  ic
  NPF6  FloPy_ModelS_T1b.npf  npf
  STO6  FloPy_ModelS_T1b.sto  sto
  CHD6  FloPy_ModelS_T1b.chd  chd_0
  OC6  FloPy_ModelS_T1b.oc  oc
  WEL6  FloPy_ModelS_T1b.wel  wel_0
  RCH6  FloPy_ModelS_T1b.rcha  rch
END packages

