# File generated by Flopy version 3.3.6 on 06/26/2023 at 15:19:01.
BEGIN options
END options

BEGIN dimensions
  MAXBOUND  1
END dimensions

BEGIN period  1
  10 26 26   -1295.08069552
END period  1

