# File generated by Flopy version 3.3.6 on 06/28/2023 at 11:57:08.
BEGIN options
END options

BEGIN griddata
  icelltype
    CONSTANT  1
  k
    CONSTANT       1.00000000
END griddata

