# File generated by Flopy version 3.3.6 on 06/28/2023 at 11:57:07.
BEGIN options
  COMPLEXITY  simple
END options

BEGIN linear
  LINEAR_ACCELERATION  bicgstab
END linear

