# File generated by Flopy version 3.3.6 on 07/06/2023 at 07:54:51.
BEGIN options
  READASARRAYS
END options

BEGIN period  1
  surface
    CONSTANT     105.00000000
  rate
    CONSTANT  3.76240651E-04
  depth
    CONSTANT      10.00000000
END period  1

