# File generated by Flopy version 3.3.6 on 07/06/2023 at 07:54:51.
BEGIN options
END options

BEGIN griddata
  icelltype
    CONSTANT  1
  k
    CONSTANT       1.12160873
END griddata

