# File generated by Flopy version 3.3.6 on 07/06/2023 at 07:54:51.
BEGIN options
  READASARRAYS
END options

BEGIN period  1
  recharge
    CONSTANT       0.00960115
END period  1

