# File generated by Flopy version 3.3.6 on 07/06/2023 at 07:54:51.
BEGIN options
  COMPLEXITY  simple
END options

BEGIN linear
  LINEAR_ACCELERATION  bicgstab
END linear

