# File generated by Flopy version 3.3.6 on 06/05/2023 at 09:49:54.
BEGIN options
  READASARRAYS
END options

BEGIN period  1
  recharge
    CONSTANT       0.04803312
END period  1

