# File generated by Flopy version 3.3.6 on 06/05/2023 at 09:49:54.
BEGIN options
  BUDGET  FILEOUT  FloPy_ModelS_T1b.cbb
  HEAD  FILEOUT  FloPy_ModelS_T1b.hds
END options

BEGIN period  1
  SAVE  HEAD  ALL
  SAVE  BUDGET  ALL
  PRINT  HEAD  LAST
END period  1

