# File generated by Flopy version 3.3.6 on 06/29/2023 at 08:38:27.
BEGIN options
END options

BEGIN dimensions
  MAXBOUND  2
END dimensions

BEGIN period  1
  10 26 26   -1007.76334680
  10 26 76   -1007.76334680
END period  1

