# File generated by Flopy version 3.3.6 on 06/29/2023 at 08:38:26.
BEGIN options
  COMPLEXITY  simple
END options

BEGIN linear
  LINEAR_ACCELERATION  bicgstab
END linear

