# File generated by Flopy version 3.3.6 on 06/29/2023 at 08:38:27.
BEGIN options
END options

BEGIN griddata
  icelltype
    CONSTANT  1
  k
    CONSTANT       1.27562850
END griddata

