# File generated by Flopy version 3.3.6 on 06/29/2023 at 08:38:27.
BEGIN options
  READASARRAYS
END options

BEGIN period  1
  recharge
    CONSTANT       0.00599051
END period  1

