# File generated by Flopy version 3.3.6 on 06/22/2023 at 11:01:17.
BEGIN options
END options

BEGIN dimensions
  MAXBOUND  1
END dimensions

BEGIN period  1
  10 26 26   -1098.36023184
END period  1

