# File generated by Flopy version 3.3.6 on 06/22/2023 at 11:01:16.
BEGIN options
  COMPLEXITY  simple
END options

BEGIN linear
  LINEAR_ACCELERATION  bicgstab
END linear

