# File generated by Flopy version 3.3.6 on 06/22/2023 at 11:01:17.
BEGIN options
  READASARRAYS
END options

BEGIN period  1
  recharge
    CONSTANT       0.04803312
END period  1

