# File generated by Flopy version 3.4.1 on 07/15/2023 at 05:15:27.
BEGIN options
  COMPLEXITY  simple
END options

BEGIN linear
  LINEAR_ACCELERATION  bicgstab
END linear

