# File generated by Flopy version 3.4.1 on 07/15/2023 at 05:15:27.
BEGIN options
  READASARRAYS
END options

BEGIN period  1
  recharge
    CONSTANT       0.00960115
END period  1

