# File generated by Flopy version 3.3.6 on 06/28/2023 at 13:01:40.
BEGIN options
  READASARRAYS
END options

BEGIN period  1
  recharge
    CONSTANT       0.01475414
END period  1

