# File generated by Flopy version 3.3.6 on 06/28/2023 at 13:01:40.
BEGIN options
END options

BEGIN dimensions
  MAXBOUND  2
END dimensions

BEGIN period  1
  10 26 26   -1098.36023184
  10 26 76   -1098.36023184
END period  1

