# File generated by Flopy version 3.4.1 on 07/13/2023 at 05:56:37.
BEGIN options
  COMPLEXITY  simple
END options

BEGIN linear
  LINEAR_ACCELERATION  bicgstab
END linear

