# File generated by Flopy version 3.4.1 on 07/13/2023 at 05:56:38.
BEGIN options
  BUDGET  FILEOUT  FloPy_ModelS_3.cbb
  HEAD  FILEOUT  FloPy_ModelS_3.hds
END options

BEGIN period  1
  SAVE  HEAD  ALL
  SAVE  BUDGET  ALL
  PRINT  HEAD  LAST
END period  1

