# File generated by Flopy version 3.4.1 on 07/13/2023 at 05:56:38.
BEGIN options
  READASARRAYS
END options

BEGIN period  1
  recharge
    CONSTANT       0.00960115
END period  1

