# File generated by Flopy version 3.4.1 on 07/13/2023 at 05:56:38.
BEGIN options
END options

BEGIN griddata
  icelltype
    CONSTANT  1
  k
    CONSTANT       1.12160873
END griddata

