# File generated by Flopy version 3.4.1 on 07/13/2023 at 05:56:38.
BEGIN options
END options

BEGIN dimensions
  MAXBOUND  2
END dimensions

BEGIN period  1
  10 26 26   -1184.23072622
  10 26 76   -1184.23072622
END period  1

