# File generated by Flopy version 3.3.6 on 06/05/2023 at 17:07:43.
BEGIN options
  READASARRAYS
END options

BEGIN period  1
  recharge
    CONSTANT       0.04803312
END period  1

