# File generated by Flopy version 3.3.6 on 06/13/2023 at 14:51:02.
BEGIN options
END options

BEGIN dimensions
  MAXBOUND  1
END dimensions

BEGIN period  1
  10 26 26    -979.35349485
END period  1

