# File generated by Flopy version 3.3.6 on 06/13/2023 at 14:51:03.
BEGIN options
  COMPLEXITY  simple
END options

BEGIN linear
  LINEAR_ACCELERATION  bicgstab
END linear

