# File generated by Flopy version 3.3.6 on 06/13/2023 at 14:51:02.
BEGIN options
  READASARRAYS
END options

BEGIN period  1
  recharge
    CONSTANT       0.00000000
END period  1

