# File generated by Flopy version 3.3.6 on 06/13/2023 at 14:51:03.
BEGIN options
END options

BEGIN timing
  TDIS6  FloPy_ModelS_T1b.tdis
END timing

BEGIN models
  gwf6  FloPy_ModelS_T1b.nam  FloPy_ModelS_T1b
END models

BEGIN exchanges
END exchanges

BEGIN solutiongroup  1
  ims6  FloPy_ModelS_T1b.ims  FloPy_ModelS_T1b
END solutiongroup  1

