# File generated by Flopy version 3.4.1 on 07/19/2023 at 00:24:38.
BEGIN options
  READASARRAYS
END options

BEGIN period  1
  recharge
    CONSTANT       0.00960115
END period  1

