# File generated by Flopy version 3.4.1 on 07/19/2023 at 00:24:37.
BEGIN options
  COMPLEXITY  simple
END options

BEGIN linear
  LINEAR_ACCELERATION  bicgstab
END linear

