# File generated by Flopy version 3.4.1 on 07/19/2023 at 00:24:37.
BEGIN options
  TIME_UNITS  days
END options

BEGIN dimensions
  NPER  1
END dimensions

BEGIN perioddata
       1.00000000  1       1.00000000
END perioddata

