# File generated by Flopy version 3.4.1 on 08/23/2023 at 20:41:08.
BEGIN options
  READASARRAYS
END options

BEGIN period  1
  recharge
    CONSTANT       0.00960115
END period  1

