# File generated by Flopy version 3.4.1 on 08/23/2023 at 20:41:08.
BEGIN options
END options

BEGIN griddata
  icelltype
    CONSTANT  1
  k
    CONSTANT       1.12160873
END griddata

