# File generated by Flopy version 3.4.1 on 08/23/2023 at 20:41:08.
BEGIN options
  COMPLEXITY  simple
END options

BEGIN linear
  LINEAR_ACCELERATION  bicgstab
END linear

