# File generated by Flopy version 3.4.1 on 08/23/2023 at 20:41:08.
BEGIN options
  TIME_UNITS  days
END options

BEGIN dimensions
  NPER  1
END dimensions

BEGIN perioddata
       1.00000000  1       1.00000000
END perioddata

