# File generated by Flopy version 3.4.1 on 08/23/2023 at 20:41:08.
BEGIN options
END options

BEGIN timing
  TDIS6  FloPy_ModelS_3.tdis
END timing

BEGIN models
  gwf6  FloPy_ModelS_3.nam  FloPy_ModelS_3
END models

BEGIN exchanges
END exchanges

BEGIN solutiongroup  1
  ims6  FloPy_ModelS_3.ims  FloPy_ModelS_3
END solutiongroup  1

