# File generated by Flopy version 3.3.6 on 07/11/2023 at 21:42:48.
BEGIN options
END options

BEGIN griddata
  icelltype
    CONSTANT  1
  k
    CONSTANT       1.83241310
END griddata

