# File generated by Flopy version 3.3.6 on 07/11/2023 at 21:42:48.
BEGIN options
  BUDGET  FILEOUT  FloPy_ModelS_3.cbb
  HEAD  FILEOUT  FloPy_ModelS_3.hds
END options

BEGIN period  1
  SAVE  HEAD  ALL
  SAVE  BUDGET  ALL
  PRINT  HEAD  LAST
END period  1

