# File generated by Flopy version 3.3.6 on 07/11/2023 at 21:42:48.
BEGIN options
  READASARRAYS
END options

BEGIN period  1
  recharge
    CONSTANT       0.00960115
END period  1

