# File generated by Flopy version 3.3.6 on 07/11/2023 at 21:42:48.
BEGIN options
  COMPLEXITY  simple
END options

BEGIN linear
  LINEAR_ACCELERATION  bicgstab
END linear

