# File generated by Flopy version 3.4.1 on 07/17/2023 at 23:50:15.
BEGIN options
  COMPLEXITY  simple
END options

BEGIN linear
  LINEAR_ACCELERATION  bicgstab
END linear

