# File generated by Flopy version 3.4.1 on 07/17/2023 at 23:50:15.
BEGIN options
  TIME_UNITS  days
END options

BEGIN dimensions
  NPER  1
END dimensions

BEGIN perioddata
       1.00000000  1       1.00000000
END perioddata

