# File generated by Flopy version 3.4.1 on 07/17/2023 at 23:50:15.
BEGIN options
  SAVE_FLOWS
  NEWTON  UNDER_RELAXATION
END options

BEGIN packages
  DIS6  FloPy_ModelS_3.dis  dis
  IC6  FloPy_ModelS_3.ic  ic
  NPF6  FloPy_ModelS_3.npf  npf
  STO6  FloPy_ModelS_3.sto  sto
  CHD6  FloPy_ModelS_3.chd  chd_0
  OC6  FloPy_ModelS_3.oc  oc
  WEL6  FloPy_ModelS_3.wel  wel_0
  RCH6  FloPy_ModelS_3.rcha  rch
END packages

