# File generated by Flopy version 3.3.6 on 06/23/2023 at 09:25:19.
BEGIN options
  COMPLEXITY  simple
END options

BEGIN linear
  LINEAR_ACCELERATION  bicgstab
END linear

