# File generated by Flopy version 3.3.6 on 06/23/2023 at 09:25:20.
BEGIN options
  READASARRAYS
END options

BEGIN period  1
  recharge
    CONSTANT       0.04803312
END period  1

