# File generated by Flopy version 3.3.6 on 06/26/2023 at 15:09:02.
BEGIN options
  READASARRAYS
END options

BEGIN period  1
  recharge
    CONSTANT       0.00842115
END period  1

