# File generated by Flopy version 3.3.6 on 07/18/2023 at 15:14:52.
BEGIN options
  COMPLEXITY  simple
END options

BEGIN linear
  LINEAR_ACCELERATION  bicgstab
END linear

