# File generated by Flopy version 3.3.6 on 07/18/2023 at 15:14:52.
BEGIN options
  SAVE_FLOWS
  NEWTON  UNDER_RELAXATION
END options

BEGIN packages
  DIS6  FloPy_Test3.dis  dis
  IC6  FloPy_Test3.ic  ic
  NPF6  FloPy_Test3.npf  npf
  STO6  FloPy_Test3.sto  sto
  CHD6  FloPy_Test3.chd  chd_0
  WEL6  FloPy_Test3.wel  wel_0
  RCH6  FloPy_Test3.rcha  rch
  EVT6  FloPy_Test3.evta  evta_0
  OC6  FloPy_Test3.oc  oc
END packages

