# File generated by Flopy version 3.3.6 on 07/18/2023 at 15:14:53.
BEGIN options
  BUDGET  FILEOUT  FloPy_Test3.cbb
  HEAD  FILEOUT  FloPy_Test3.hds
END options

BEGIN period  1
  SAVE  HEAD  ALL
  SAVE  BUDGET  ALL
  PRINT  HEAD  LAST
END period  1

