# File generated by Flopy version 3.3.6 on 07/18/2023 at 15:14:53.
BEGIN options
  READASARRAYS
END options

BEGIN period  1
  recharge
    CONSTANT       0.00000000
END period  1

