# File generated by Flopy version 3.3.6 on 07/18/2023 at 15:14:53.
BEGIN options
END options

BEGIN dimensions
  MAXBOUND  2
END dimensions

BEGIN period  1
  10 26 26   -1000.00000000
  10 26 76   -1000.00000000
END period  1

