# File generated by Flopy version 3.3.6 on 07/18/2023 at 15:14:53.
BEGIN options
END options

BEGIN griddata
  icelltype
    CONSTANT  1
  k
    CONSTANT       1.00000000
END griddata

