# File generated by Flopy version 3.3.6 on 07/18/2023 at 15:14:52.
BEGIN options
END options

BEGIN timing
  TDIS6  FloPy_Test3.tdis
END timing

BEGIN models
  gwf6  FloPy_Test3.nam  FloPy_Test3
END models

BEGIN exchanges
END exchanges

BEGIN solutiongroup  1
  ims6  FloPy_Test3.ims  FloPy_Test3
END solutiongroup  1

