# File generated by Flopy version 3.3.6 on 06/23/2023 at 13:58:57.
BEGIN options
  COMPLEXITY  simple
END options

BEGIN linear
  LINEAR_ACCELERATION  bicgstab
END linear

