# File generated by Flopy version 3.3.6 on 06/23/2023 at 13:58:58.
BEGIN options
  READASARRAYS
END options

BEGIN period  1
  recharge
    CONSTANT       0.00975414
END period  1

