# File generated by Flopy version 3.3.6 on 06/23/2023 at 17:43:33.
BEGIN options
  COMPLEXITY  simple
END options

BEGIN linear
  LINEAR_ACCELERATION  bicgstab
END linear

